19 
Image-2 
Mg  1.7329391614791407  1.0148006062274375  17.499995368484274 
O  0.017362861410464912  1.9282793122822097  17.499999524217458 
Mg  4.771226243658626  0.6796666392868035  17.499996195838275 
Mg  8.277963842307189  0.9979814208317919  17.50000044388021 
Mg  0.009182962603593442  3.8512949783618975  17.49999999071938 
O  -1.663171801917771  4.803386783784166  17.499999806832438 
Mg  3.325582258858404  3.784121165194461  17.500001508249113 
O  1.6821833826227914  4.7991011710120635  17.499999718308022 
Mg  6.7006877193086325  3.892598172707544  17.500007919229137 
O  4.979931298314279  4.822774727377824  17.500000274039564 
Mg  -1.6537153748009734  6.734715467554386  17.50000007834721 
O  -3.308354699902662  7.710523545873389  17.499999521608796 
Mg  1.6704410315959262  6.73458997540452  17.500000063519508 
O  0.005335651547604644  7.7155125546503  17.49999925176413 
Mg  4.992743346038545  6.737966053633942  17.500000029106808 
O  3.3283632247074473  7.702556491255145  17.499999664046918 
O  5.602125132878012  2.145906220962203  17.499950917499174 
VO  6.645214  1.91830804  17.5 
VO  3.322607  1.91830804  17.5 
