19 
Image-6 
Mg  1.627402225247502  0.9779936702687251  17.499987443131864 
O  -0.064290706466052  1.928034258205143  17.499999364960495 
Mg  5.05271125806579  1.033921116844748  17.499973271242627 
Mg  8.171211958516574  1.034742368327305  17.500000540791792 
Mg  -0.033867131675333  3.851039952170785  17.499999421582437 
O  -1.709385324933561  4.792342270469293  17.500000312716505 
Mg  3.3036273407682604  3.839132547844451  17.50000267231675 
O  1.636760562268579  4.80925485946609  17.499999478204376 
Mg  6.613952299138757  3.742369751510962  17.500007253402035 
O  4.975598572781013  4.796405048053872  17.499999690933528 
Mg  -1.693344810107577  6.733483566676229  17.50000012168361 
O  -3.3556823393804702  7.691202970620752  17.499999243249786 
Mg  1.630916149972868  6.735335727452035  17.499999992035242 
O  -0.02090626982378  7.71533247554355  17.499998546852854 
Mg  4.950021740716833  6.7349407396848715  17.499999757080655 
O  3.28095219627835  7.721299206573634  17.500000043894588 
O  3.322207167521506  1.918091197003553  17.50010071188118 
VO  6.645214  1.91830804  17.5 
VO  3.322607  1.91830804  17.5 
VO 
VO 
VO 
VO 
VO 
VO 
VO 
VO 
VO 
VO 
VO 
VO 
VO 
VO 
