19 
Image-0 
Mg  1.796414504088644  1.034964575570552  17.49999988461231 
O  0.06411382958297901  1.9282490876626561  17.499999615790397 
Mg  4.915157495637357  1.03417104502514  17.49999410652865 
Mg  8.340330058469936  0.977588183100705  17.500000370396798 
Mg  0.033775998929101  3.851369381257772  17.50000031377486 
O  -1.636826775540704  4.80954444628757  17.499999518951007 
Mg  3.3538890818257108  3.7422376900988423  17.50000048152397 
O  1.7095216292868671  4.792596209811345  17.49999984439486 
Mg  6.66447523085069  3.83903582857663  17.500003972504636 
O  4.992398059719246  4.796402262995321  17.499999830636256 
Mg  -1.6312125118474792  6.735424725498249  17.500000053419775 
O  -3.281407227113818  7.721478929370614  17.499999679820814 
Mg  1.693271725472107  6.733697718787182  17.500000099458173 
O  0.020564637915173  7.715517026551477  17.49999965177443 
Mg  5.017666302745052  6.734829725229573  17.50000014920081 
O  3.3556981316096812  7.691086499821407  17.499999441161986 
O  6.645625917535132  1.918067361283942  17.499886389375238 
VO  6.645214  1.91830804  17.5 
VO  3.322607  1.91830804  17.5 
